<?xml version="1.0" encoding="UTF-8"?>
<!-- generated on 2020-04-02 17:37:16.693185 by $Id$
  options: -n simpleNetwork.net.xml -r routes.rou.xml -e 3
-->
<routes xmlns:xsi="http://www.w3.org/2001/XMLSchema-instance" xsi:noNamespaceSchemaLocation="http://sumo.dlr.de/xsd/routes_file.xsd">
    <trip id="0" depart="0.00" from="T2bend" to="incoming2four-arm_LTL"/>
    <trip id="1" depart="1.00" from="incoming2four-arm_LTL" to="bend2T_LTL"/>
    <trip id="2" depart="2.00" from="bend2four-arm_LTL" to="T2SEB"/>
</routes>
