<configuration> 
    <input> 
        <net-file value="simpleNetwork.net.xml"/> 
        <route-files value="routes10perCh.rou.xml"/> 
    </input> 
    
    <time> 
        <begin value="0"/>
    </time> 

</configuration>